512
# positions{angstrom} CELL{abcABC}: 22.885812 22.885812 22.885812  90   90   90 cell{angstrom}
Cl -0.0407265 -0.0407265 -0.0407265
Cl 2.82 2.82 -0.0407265
Cl -0.0407265 2.82 2.82
Cl 2.82 -0.0407265 2.82
Na 2.82 -0.0407265 -0.0407265
Na -0.0407265 2.82 -0.0407265
Na -0.0407265 -0.0407265 2.82
Na 2.82 2.82 2.82
Cl 5.68073 -0.0407265 -0.0407265
Cl 8.54145 2.82 -0.0407265
Cl 5.68073 2.82 2.82
Cl 8.54145 -0.0407265 2.82
Na 8.54145 -0.0407265 -0.0407265
Na 5.68073 2.82 -0.0407265
Na 5.68073 -0.0407265 2.82
Na 8.54145 2.82 2.82
Cl 11.4022 -0.0407265 -0.0407265
Cl 14.2629 2.82 -0.0407265
Cl 11.4022 2.82 2.82
Cl 14.2629 -0.0407265 2.82
Na 14.2629 -0.0407265 -0.0407265
Na 11.4022 2.82 -0.0407265
Na 11.4022 -0.0407265 2.82
Na 14.2629 2.82 2.82
Cl 17.1236 -0.0407265 -0.0407265
Cl 19.9844 2.82 -0.0407265
Cl 17.1236 2.82 2.82
Cl 19.9844 -0.0407265 2.82
Na 19.9844 -0.0407265 -0.0407265
Na 17.1236 2.82 -0.0407265
Na 17.1236 -0.0407265 2.82
Na 19.9844 2.82 2.82
Cl -0.0407265 5.68073 -0.0407265
Cl 2.82 8.54145 -0.0407265
Cl -0.0407265 8.54145 2.82
Cl 2.82 5.68073 2.82
Na 2.82 5.68073 -0.0407265
Na -0.0407265 8.54145 -0.0407265
Na -0.0407265 5.68073 2.82
Na 2.82 8.54145 2.82
Cl 5.68073 5.68073 -0.0407265
Cl 8.54145 8.54145 -0.0407265
Cl 5.68073 8.54145 2.82
Cl 8.54145 5.68073 2.82
Na 8.54145 5.68073 -0.0407265
Na 5.68073 8.54145 -0.0407265
Na 5.68073 5.68073 2.82
Na 8.54145 8.54145 2.82
Cl 11.4022 5.68073 -0.0407265
Cl 14.2629 8.54145 -0.0407265
Cl 11.4022 8.54145 2.82
Cl 14.2629 5.68073 2.82
Na 14.2629 5.68073 -0.0407265
Na 11.4022 8.54145 -0.0407265
Na 11.4022 5.68073 2.82
Na 14.2629 8.54145 2.82
Cl 17.1236 5.68073 -0.0407265
Cl 19.9844 8.54145 -0.0407265
Cl 17.1236 8.54145 2.82
Cl 19.9844 5.68073 2.82
Na 19.9844 5.68073 -0.0407265
Na 17.1236 8.54145 -0.0407265
Na 17.1236 5.68073 2.82
Na 19.9844 8.54145 2.82
Cl -0.0407265 11.4022 -0.0407265
Cl 2.82 14.2629 -0.0407265
Cl -0.0407265 14.2629 2.82
Cl 2.82 11.4022 2.82
Na 2.82 11.4022 -0.0407265
Na -0.0407265 14.2629 -0.0407265
Na -0.0407265 11.4022 2.82
Na 2.82 14.2629 2.82
Cl 5.68073 11.4022 -0.0407265
Cl 8.54145 14.2629 -0.0407265
Cl 5.68073 14.2629 2.82
Cl 8.54145 11.4022 2.82
Na 8.54145 11.4022 -0.0407265
Na 5.68073 14.2629 -0.0407265
Na 5.68073 11.4022 2.82
Na 8.54145 14.2629 2.82
Cl 11.4022 11.4022 -0.0407265
Cl 14.2629 14.2629 -0.0407265
Cl 11.4022 14.2629 2.82
Cl 14.2629 11.4022 2.82
Na 14.2629 11.4022 -0.0407265
Na 11.4022 14.2629 -0.0407265
Na 11.4022 11.4022 2.82
Na 14.2629 14.2629 2.82
Cl 17.1236 11.4022 -0.0407265
Cl 19.9844 14.2629 -0.0407265
Cl 17.1236 14.2629 2.82
Cl 19.9844 11.4022 2.82
Na 19.9844 11.4022 -0.0407265
Na 17.1236 14.2629 -0.0407265
Na 17.1236 11.4022 2.82
Na 19.9844 14.2629 2.82
Cl -0.0407265 17.1236 -0.0407265
Cl 2.82 19.9844 -0.0407265
Cl -0.0407265 19.9844 2.82
Cl 2.82 17.1236 2.82
Na 2.82 17.1236 -0.0407265
Na -0.0407265 19.9844 -0.0407265
Na -0.0407265 17.1236 2.82
Na 2.82 19.9844 2.82
Cl 5.68073 17.1236 -0.0407265
Cl 8.54145 19.9844 -0.0407265
Cl 5.68073 19.9844 2.82
Cl 8.54145 17.1236 2.82
Na 8.54145 17.1236 -0.0407265
Na 5.68073 19.9844 -0.0407265
Na 5.68073 17.1236 2.82
Na 8.54145 19.9844 2.82
Cl 11.4022 17.1236 -0.0407265
Cl 14.2629 19.9844 -0.0407265
Cl 11.4022 19.9844 2.82
Cl 14.2629 17.1236 2.82
Na 14.2629 17.1236 -0.0407265
Na 11.4022 19.9844 -0.0407265
Na 11.4022 17.1236 2.82
Na 14.2629 19.9844 2.82
Cl 17.1236 17.1236 -0.0407265
Cl 19.9844 19.9844 -0.0407265
Cl 17.1236 19.9844 2.82
Cl 19.9844 17.1236 2.82
Na 19.9844 17.1236 -0.0407265
Na 17.1236 19.9844 -0.0407265
Na 17.1236 17.1236 2.82
Na 19.9844 19.9844 2.82
Cl -0.0407265 -0.0407265 5.68073
Cl 2.82 2.82 5.68073
Cl -0.0407265 2.82 8.54145
Cl 2.82 -0.0407265 8.54145
Na 2.82 -0.0407265 5.68073
Na -0.0407265 2.82 5.68073
Na -0.0407265 -0.0407265 8.54145
Na 2.82 2.82 8.54145
Cl 5.68073 -0.0407265 5.68073
Cl 8.54145 2.82 5.68073
Cl 5.68073 2.82 8.54145
Cl 8.54145 -0.0407265 8.54145
Na 8.54145 -0.0407265 5.68073
Na 5.68073 2.82 5.68073
Na 5.68073 -0.0407265 8.54145
Na 8.54145 2.82 8.54145
Cl 11.4022 -0.0407265 5.68073
Cl 14.2629 2.82 5.68073
Cl 11.4022 2.82 8.54145
Cl 14.2629 -0.0407265 8.54145
Na 14.2629 -0.0407265 5.68073
Na 11.4022 2.82 5.68073
Na 11.4022 -0.0407265 8.54145
Na 14.2629 2.82 8.54145
Cl 17.1236 -0.0407265 5.68073
Cl 19.9844 2.82 5.68073
Cl 17.1236 2.82 8.54145
Cl 19.9844 -0.0407265 8.54145
Na 19.9844 -0.0407265 5.68073
Na 17.1236 2.82 5.68073
Na 17.1236 -0.0407265 8.54145
Na 19.9844 2.82 8.54145
Cl -0.0407265 5.68073 5.68073
Cl 2.82 8.54145 5.68073
Cl -0.0407265 8.54145 8.54145
Cl 2.82 5.68073 8.54145
Na 2.82 5.68073 5.68073
Na -0.0407265 8.54145 5.68073
Na -0.0407265 5.68073 8.54145
Na 2.82 8.54145 8.54145
Cl 5.68073 5.68073 5.68073
Cl 8.54145 8.54145 5.68073
Cl 5.68073 8.54145 8.54145
Cl 8.54145 5.68073 8.54145
Na 8.54145 5.68073 5.68073
Na 5.68073 8.54145 5.68073
Na 5.68073 5.68073 8.54145
Na 8.54145 8.54145 8.54145
Cl 11.4022 5.68073 5.68073
Cl 14.2629 8.54145 5.68073
Cl 11.4022 8.54145 8.54145
Cl 14.2629 5.68073 8.54145
Na 14.2629 5.68073 5.68073
Na 11.4022 8.54145 5.68073
Na 11.4022 5.68073 8.54145
Na 14.2629 8.54145 8.54145
Cl 17.1236 5.68073 5.68073
Cl 19.9844 8.54145 5.68073
Cl 17.1236 8.54145 8.54145
Cl 19.9844 5.68073 8.54145
Na 19.9844 5.68073 5.68073
Na 17.1236 8.54145 5.68073
Na 17.1236 5.68073 8.54145
Na 19.9844 8.54145 8.54145
Cl -0.0407265 11.4022 5.68073
Cl 2.82 14.2629 5.68073
Cl -0.0407265 14.2629 8.54145
Cl 2.82 11.4022 8.54145
Na 2.82 11.4022 5.68073
Na -0.0407265 14.2629 5.68073
Na -0.0407265 11.4022 8.54145
Na 2.82 14.2629 8.54145
Cl 5.68073 11.4022 5.68073
Cl 8.54145 14.2629 5.68073
Cl 5.68073 14.2629 8.54145
Cl 8.54145 11.4022 8.54145
Na 8.54145 11.4022 5.68073
Na 5.68073 14.2629 5.68073
Na 5.68073 11.4022 8.54145
Na 8.54145 14.2629 8.54145
Cl 11.4022 11.4022 5.68073
Cl 14.2629 14.2629 5.68073
Cl 11.4022 14.2629 8.54145
Cl 14.2629 11.4022 8.54145
Na 14.2629 11.4022 5.68073
Na 11.4022 14.2629 5.68073
Na 11.4022 11.4022 8.54145
Na 14.2629 14.2629 8.54145
Cl 17.1236 11.4022 5.68073
Cl 19.9844 14.2629 5.68073
Cl 17.1236 14.2629 8.54145
Cl 19.9844 11.4022 8.54145
Na 19.9844 11.4022 5.68073
Na 17.1236 14.2629 5.68073
Na 17.1236 11.4022 8.54145
Na 19.9844 14.2629 8.54145
Cl -0.0407265 17.1236 5.68073
Cl 2.82 19.9844 5.68073
Cl -0.0407265 19.9844 8.54145
Cl 2.82 17.1236 8.54145
Na 2.82 17.1236 5.68073
Na -0.0407265 19.9844 5.68073
Na -0.0407265 17.1236 8.54145
Na 2.82 19.9844 8.54145
Cl 5.68073 17.1236 5.68073
Cl 8.54145 19.9844 5.68073
Cl 5.68073 19.9844 8.54145
Cl 8.54145 17.1236 8.54145
Na 8.54145 17.1236 5.68073
Na 5.68073 19.9844 5.68073
Na 5.68073 17.1236 8.54145
Na 8.54145 19.9844 8.54145
Cl 11.4022 17.1236 5.68073
Cl 14.2629 19.9844 5.68073
Cl 11.4022 19.9844 8.54145
Cl 14.2629 17.1236 8.54145
Na 14.2629 17.1236 5.68073
Na 11.4022 19.9844 5.68073
Na 11.4022 17.1236 8.54145
Na 14.2629 19.9844 8.54145
Cl 17.1236 17.1236 5.68073
Cl 19.9844 19.9844 5.68073
Cl 17.1236 19.9844 8.54145
Cl 19.9844 17.1236 8.54145
Na 19.9844 17.1236 5.68073
Na 17.1236 19.9844 5.68073
Na 17.1236 17.1236 8.54145
Na 19.9844 19.9844 8.54145
Cl -0.0407265 -0.0407265 11.4022
Cl 2.82 2.82 11.4022
Cl -0.0407265 2.82 14.2629
Cl 2.82 -0.0407265 14.2629
Na 2.82 -0.0407265 11.4022
Na -0.0407265 2.82 11.4022
Na -0.0407265 -0.0407265 14.2629
Na 2.82 2.82 14.2629
Cl 5.68073 -0.0407265 11.4022
Cl 8.54145 2.82 11.4022
Cl 5.68073 2.82 14.2629
Cl 8.54145 -0.0407265 14.2629
Na 8.54145 -0.0407265 11.4022
Na 5.68073 2.82 11.4022
Na 5.68073 -0.0407265 14.2629
Na 8.54145 2.82 14.2629
Cl 11.4022 -0.0407265 11.4022
Cl 14.2629 2.82 11.4022
Cl 11.4022 2.82 14.2629
Cl 14.2629 -0.0407265 14.2629
Na 14.2629 -0.0407265 11.4022
Na 11.4022 2.82 11.4022
Na 11.4022 -0.0407265 14.2629
Na 14.2629 2.82 14.2629
Cl 17.1236 -0.0407265 11.4022
Cl 19.9844 2.82 11.4022
Cl 17.1236 2.82 14.2629
Cl 19.9844 -0.0407265 14.2629
Na 19.9844 -0.0407265 11.4022
Na 17.1236 2.82 11.4022
Na 17.1236 -0.0407265 14.2629
Na 19.9844 2.82 14.2629
Cl -0.0407265 5.68073 11.4022
Cl 2.82 8.54145 11.4022
Cl -0.0407265 8.54145 14.2629
Cl 2.82 5.68073 14.2629
Na 2.82 5.68073 11.4022
Na -0.0407265 8.54145 11.4022
Na -0.0407265 5.68073 14.2629
Na 2.82 8.54145 14.2629
Cl 5.68073 5.68073 11.4022
Cl 8.54145 8.54145 11.4022
Cl 5.68073 8.54145 14.2629
Cl 8.54145 5.68073 14.2629
Na 8.54145 5.68073 11.4022
Na 5.68073 8.54145 11.4022
Na 5.68073 5.68073 14.2629
Na 8.54145 8.54145 14.2629
Cl 11.4022 5.68073 11.4022
Cl 14.2629 8.54145 11.4022
Cl 11.4022 8.54145 14.2629
Cl 14.2629 5.68073 14.2629
Na 14.2629 5.68073 11.4022
Na 11.4022 8.54145 11.4022
Na 11.4022 5.68073 14.2629
Na 14.2629 8.54145 14.2629
Cl 17.1236 5.68073 11.4022
Cl 19.9844 8.54145 11.4022
Cl 17.1236 8.54145 14.2629
Cl 19.9844 5.68073 14.2629
Na 19.9844 5.68073 11.4022
Na 17.1236 8.54145 11.4022
Na 17.1236 5.68073 14.2629
Na 19.9844 8.54145 14.2629
Cl -0.0407265 11.4022 11.4022
Cl 2.82 14.2629 11.4022
Cl -0.0407265 14.2629 14.2629
Cl 2.82 11.4022 14.2629
Na 2.82 11.4022 11.4022
Na -0.0407265 14.2629 11.4022
Na -0.0407265 11.4022 14.2629
Na 2.82 14.2629 14.2629
Cl 5.68073 11.4022 11.4022
Cl 8.54145 14.2629 11.4022
Cl 5.68073 14.2629 14.2629
Cl 8.54145 11.4022 14.2629
Na 8.54145 11.4022 11.4022
Na 5.68073 14.2629 11.4022
Na 5.68073 11.4022 14.2629
Na 8.54145 14.2629 14.2629
Cl 11.4022 11.4022 11.4022
Cl 14.2629 14.2629 11.4022
Cl 11.4022 14.2629 14.2629
Cl 14.2629 11.4022 14.2629
Na 14.2629 11.4022 11.4022
Na 11.4022 14.2629 11.4022
Na 11.4022 11.4022 14.2629
Na 14.2629 14.2629 14.2629
Cl 17.1236 11.4022 11.4022
Cl 19.9844 14.2629 11.4022
Cl 17.1236 14.2629 14.2629
Cl 19.9844 11.4022 14.2629
Na 19.9844 11.4022 11.4022
Na 17.1236 14.2629 11.4022
Na 17.1236 11.4022 14.2629
Na 19.9844 14.2629 14.2629
Cl -0.0407265 17.1236 11.4022
Cl 2.82 19.9844 11.4022
Cl -0.0407265 19.9844 14.2629
Cl 2.82 17.1236 14.2629
Na 2.82 17.1236 11.4022
Na -0.0407265 19.9844 11.4022
Na -0.0407265 17.1236 14.2629
Na 2.82 19.9844 14.2629
Cl 5.68073 17.1236 11.4022
Cl 8.54145 19.9844 11.4022
Cl 5.68073 19.9844 14.2629
Cl 8.54145 17.1236 14.2629
Na 8.54145 17.1236 11.4022
Na 5.68073 19.9844 11.4022
Na 5.68073 17.1236 14.2629
Na 8.54145 19.9844 14.2629
Cl 11.4022 17.1236 11.4022
Cl 14.2629 19.9844 11.4022
Cl 11.4022 19.9844 14.2629
Cl 14.2629 17.1236 14.2629
Na 14.2629 17.1236 11.4022
Na 11.4022 19.9844 11.4022
Na 11.4022 17.1236 14.2629
Na 14.2629 19.9844 14.2629
Cl 17.1236 17.1236 11.4022
Cl 19.9844 19.9844 11.4022
Cl 17.1236 19.9844 14.2629
Cl 19.9844 17.1236 14.2629
Na 19.9844 17.1236 11.4022
Na 17.1236 19.9844 11.4022
Na 17.1236 17.1236 14.2629
Na 19.9844 19.9844 14.2629
Cl -0.0407265 -0.0407265 17.1236
Cl 2.82 2.82 17.1236
Cl -0.0407265 2.82 19.9844
Cl 2.82 -0.0407265 19.9844
Na 2.82 -0.0407265 17.1236
Na -0.0407265 2.82 17.1236
Na -0.0407265 -0.0407265 19.9844
Na 2.82 2.82 19.9844
Cl 5.68073 -0.0407265 17.1236
Cl 8.54145 2.82 17.1236
Cl 5.68073 2.82 19.9844
Cl 8.54145 -0.0407265 19.9844
Na 8.54145 -0.0407265 17.1236
Na 5.68073 2.82 17.1236
Na 5.68073 -0.0407265 19.9844
Na 8.54145 2.82 19.9844
Cl 11.4022 -0.0407265 17.1236
Cl 14.2629 2.82 17.1236
Cl 11.4022 2.82 19.9844
Cl 14.2629 -0.0407265 19.9844
Na 14.2629 -0.0407265 17.1236
Na 11.4022 2.82 17.1236
Na 11.4022 -0.0407265 19.9844
Na 14.2629 2.82 19.9844
Cl 17.1236 -0.0407265 17.1236
Cl 19.9844 2.82 17.1236
Cl 17.1236 2.82 19.9844
Cl 19.9844 -0.0407265 19.9844
Na 19.9844 -0.0407265 17.1236
Na 17.1236 2.82 17.1236
Na 17.1236 -0.0407265 19.9844
Na 19.9844 2.82 19.9844
Cl -0.0407265 5.68073 17.1236
Cl 2.82 8.54145 17.1236
Cl -0.0407265 8.54145 19.9844
Cl 2.82 5.68073 19.9844
Na 2.82 5.68073 17.1236
Na -0.0407265 8.54145 17.1236
Na -0.0407265 5.68073 19.9844
Na 2.82 8.54145 19.9844
Cl 5.68073 5.68073 17.1236
Cl 8.54145 8.54145 17.1236
Cl 5.68073 8.54145 19.9844
Cl 8.54145 5.68073 19.9844
Na 8.54145 5.68073 17.1236
Na 5.68073 8.54145 17.1236
Na 5.68073 5.68073 19.9844
Na 8.54145 8.54145 19.9844
Cl 11.4022 5.68073 17.1236
Cl 14.2629 8.54145 17.1236
Cl 11.4022 8.54145 19.9844
Cl 14.2629 5.68073 19.9844
Na 14.2629 5.68073 17.1236
Na 11.4022 8.54145 17.1236
Na 11.4022 5.68073 19.9844
Na 14.2629 8.54145 19.9844
Cl 17.1236 5.68073 17.1236
Cl 19.9844 8.54145 17.1236
Cl 17.1236 8.54145 19.9844
Cl 19.9844 5.68073 19.9844
Na 19.9844 5.68073 17.1236
Na 17.1236 8.54145 17.1236
Na 17.1236 5.68073 19.9844
Na 19.9844 8.54145 19.9844
Cl -0.0407265 11.4022 17.1236
Cl 2.82 14.2629 17.1236
Cl -0.0407265 14.2629 19.9844
Cl 2.82 11.4022 19.9844
Na 2.82 11.4022 17.1236
Na -0.0407265 14.2629 17.1236
Na -0.0407265 11.4022 19.9844
Na 2.82 14.2629 19.9844
Cl 5.68073 11.4022 17.1236
Cl 8.54145 14.2629 17.1236
Cl 5.68073 14.2629 19.9844
Cl 8.54145 11.4022 19.9844
Na 8.54145 11.4022 17.1236
Na 5.68073 14.2629 17.1236
Na 5.68073 11.4022 19.9844
Na 8.54145 14.2629 19.9844
Cl 11.4022 11.4022 17.1236
Cl 14.2629 14.2629 17.1236
Cl 11.4022 14.2629 19.9844
Cl 14.2629 11.4022 19.9844
Na 14.2629 11.4022 17.1236
Na 11.4022 14.2629 17.1236
Na 11.4022 11.4022 19.9844
Na 14.2629 14.2629 19.9844
Cl 17.1236 11.4022 17.1236
Cl 19.9844 14.2629 17.1236
Cl 17.1236 14.2629 19.9844
Cl 19.9844 11.4022 19.9844
Na 19.9844 11.4022 17.1236
Na 17.1236 14.2629 17.1236
Na 17.1236 11.4022 19.9844
Na 19.9844 14.2629 19.9844
Cl -0.0407265 17.1236 17.1236
Cl 2.82 19.9844 17.1236
Cl -0.0407265 19.9844 19.9844
Cl 2.82 17.1236 19.9844
Na 2.82 17.1236 17.1236
Na -0.0407265 19.9844 17.1236
Na -0.0407265 17.1236 19.9844
Na 2.82 19.9844 19.9844
Cl 5.68073 17.1236 17.1236
Cl 8.54145 19.9844 17.1236
Cl 5.68073 19.9844 19.9844
Cl 8.54145 17.1236 19.9844
Na 8.54145 17.1236 17.1236
Na 5.68073 19.9844 17.1236
Na 5.68073 17.1236 19.9844
Na 8.54145 19.9844 19.9844
Cl 11.4022 17.1236 17.1236
Cl 14.2629 19.9844 17.1236
Cl 11.4022 19.9844 19.9844
Cl 14.2629 17.1236 19.9844
Na 14.2629 17.1236 17.1236
Na 11.4022 19.9844 17.1236
Na 11.4022 17.1236 19.9844
Na 14.2629 19.9844 19.9844
Cl 17.1236 17.1236 17.1236
Cl 19.9844 19.9844 17.1236
Cl 17.1236 19.9844 19.9844
Cl 19.9844 17.1236 19.9844
Na 19.9844 17.1236 17.1236
Na 17.1236 19.9844 17.1236
Na 17.1236 17.1236 19.9844
Na 19.9844 19.9844 19.9844
