374
# CELL(abcABC): 1.600000e+01 1.600000e+01 1.600000e+01 90.0 90.0 90.0 positions{angstrom} cell{angstrom}
C -1.7527220455 -3.0776312416 -0.8216507612
H -1.4627340729 -4.1038871892 -0.5083322738
H -1.6436750099 -2.9903871760 -1.9242493467
H -2.8181753543 -2.9210231020 -0.5545237440
C -0.9087732040 -2.0867228625 -0.1230168532
O -0.1856520568 -2.4211886577 0.8106925209
N -0.9255051314 -0.8500968864 -0.6593715200
H -1.5714214151 -0.6406186278 -1.3922168696
C -0.0884089627 0.2190563579 -0.2428362638
C -0.6268861011 1.5102625066 -0.2628944161
H -1.6209817582 1.6730524969 -0.6513632535
C 0.1113002360 2.5847920731 0.2535463203
H -0.2993507365 3.5824641077 0.2332940188
C 1.9466266524 1.0965343908 0.7858836680
H 2.9360281569 0.9169713020 1.1842114625
C 1.2066089439 0.0261921379 0.2704682597
H 1.6428154448 -0.9597494207 0.2773631217
C 1.3812245645 2.3750312606 0.7986021269
O 2.0811431889 3.4570694977 1.3533432997
H 3.0136682888 3.2356101371 1.2692262814
O 4.2030570577 2.1562341746 -1.3810328498
H 4.1576192610 3.0879900854 -1.6890123461
H 3.4848438301 1.7500320708 -1.9027115597
O -4.9126749136 0.7340610625 3.9708022785
H -5.0543066528 -0.1674269820 4.3358990509
H -4.4259555708 1.1082364733 4.7365778380
O 6.4876219073 3.6449799983 0.9305850025
H 5.8503374878 3.2879044171 1.5533726346
H 6.8265689646 4.4231320851 1.4292038134
O -4.1036025408 4.6739511447 2.3978965434
H -4.1808161852 3.7687463831 2.0437072629
H -3.1925052200 4.9173094038 2.1042195708
O -6.3916167650 -0.0123725653 -2.9117084694
H -5.8682892210 0.4949557614 -2.2589009040
H -7.1909118980 -0.2104162886 -2.3772294677
O -5.5329237888 1.1326809053 -0.3684410670
H -5.6053573085 0.2682110633 0.0651344674
H -4.9636348157 1.6355041847 0.2438078914
O 3.7880981472 -2.1116781464 2.8320922358
H 4.2151221739 -2.9791202504 2.9469366943
H 3.7608547925 -2.0693083328 1.8560898050
O 5.4164885406 -3.9431912411 -1.2146190251
H 5.8299664101 -4.4022884020 -0.4445327623
H 6.2113436798 -3.6982626274 -1.7158051390
O -5.7443200617 -1.7080303897 0.9989853777
H -4.9887519130 -2.1189523359 1.4775274151
H -5.5176571498 -1.9661742801 0.0743014305
O -3.6465098292 -4.8140536089 4.3358682796
H -3.8951067133 -4.3214364696 3.5260429936
H -4.4480303891 -4.7634351184 4.8922329612
O 3.8660755993 4.6831725961 -2.5270721387
H 3.3376419673 4.5893624210 -3.3410540995
H 3.4593167823 5.5140780808 -2.1763436603
O -0.6119835917 2.9480554817 4.7983514136
H -1.5397366122 3.2930438570 4.8212871789
H -0.2280856705 3.5310398204 4.1246736663
O 6.5448383828 -4.8913914827 0.9706602670
H 6.0098127432 -4.6313624892 1.7535929243
H 7.4435181997 -4.7150305165 1.3071997016
O -3.7371592974 -3.3450383837 2.0145194913
H -3.3573863118 -2.6580104277 2.6157492688
H -2.9426007386 -3.6075426176 1.5283182539
O -3.0506660715 4.0986677780 4.8122911035
H -3.5090295991 4.2060685259 3.9517462493
H -3.7001119011 4.5559656361 5.3923672211
O -6.7794770823 4.1530089967 -3.8049784023
H -6.7789237944 4.6103524962 -4.6755392594
H -6.5883887866 4.9055766381 -3.2143247505
O 7.0303878255 5.9045246544 2.3704659671
H 6.3284510202 6.1246291697 3.0080300654
H 7.1514983427 6.7849089724 1.9653778901
O 7.6523252529 -4.7522339829 4.3082840808
H 6.6835222778 -4.6877892713 4.2617894231
H 7.9050178193 -3.8754005767 3.9940304660
O -0.3619109230 -7.0643847773 1.6251779089
H 0.1434437720 -7.5949596096 2.2688543492
H -1.2272772570 -7.0049635872 2.0954268670
O 5.3212220254 8.0284025660 -0.8677901280
H 5.6631741418 7.1215063002 -1.0128349257
H 5.8523724318 8.5049106505 -1.5283468484
O 6.2695041632 5.2655580333 -1.5270833079
H 5.5396220066 4.8755909947 -2.0554718191
H 6.3554645267 4.6438426723 -0.7715497090
O 2.7877460148 1.2716996293 -3.6147596160
H 2.1922658925 2.0282871904 -3.7820051797
H 3.2999270333 1.1727034652 -4.4423569297
O 2.8249818553 -0.6030330238 -7.0494750184
H 3.4879047586 -0.3243689209 -6.3992361657
H 3.1272647021 -1.5140998370 -7.2129851310
O 6.1100706116 1.1310461551 -2.9521467437
H 5.4428612745 1.4692547955 -2.3097098698
H 6.7307027946 0.7044104621 -2.3280059141
O 5.7895446581 -0.6089997542 7.2315366023
H 5.5801198434 0.1751592009 7.7618073345
H 5.3648037075 -0.3744807300 6.3894727366
O -1.4929619811 5.1741865798 1.8261827231
H -1.4767521310 5.3023599482 0.8469342216
H -0.8241971122 5.8102524623 2.1216396674
O -1.4194631988 0.9056837389 2.9155157310
H -0.7167347125 0.7681578086 2.2678830060
H -0.9872372929 1.4893988962 3.5668694388
O 4.4781851664 6.1702969133 3.8626164087
H 4.5320580343 6.4247980513 4.8107473440
H 4.1568762973 5.2462990362 3.9494902059
O -1.6171462137 5.1155893552 6.9878089896
H -1.8525948986 5.9963893466 6.6170535816
H -1.9319062004 4.5570757818 6.2447316857
O 4.8803706001 0.4102529360 -5.2958853125
H 5.2719048771 0.8146525347 -4.4890826478
H 5.3320553916 0.9494876324 -5.9897363195
O -3.9725357160 1.6685727655 6.3542361370
H -3.6384302992 2.3200356236 7.0033388993
H -4.8561316762 1.4503376712 6.7261490747
O 2.9026089658 6.9917674832 -1.7495604299
H 3.5497675980 7.3924600524 -1.1310477872
H 2.3230537525 7.7419686195 -1.9555950558
O -3.0840092402 0.6971193615 -3.8057330001
H -3.7153631001 1.4441088859 -3.9518183462
H -3.6633186877 0.0122655563 -3.4577210933
O -6.9752055162 3.5921960002 6.3651584561
H -7.6911383279 3.5498465998 5.7010153104
H -6.8762271411 2.6511483899 6.6089864777
O -5.9457838899 6.7266031323 1.7311269684
H -5.3405261545 6.0154477844 2.0262773432
H -6.7713378417 6.4330680598 2.1415153259
O 1.6801082613 5.9244193793 6.0560314817
H 2.5073981851 6.4392614708 6.0344681369
H 1.3158592281 6.2132634096 6.9093359587
O -4.8217084762 5.0715549007 6.5956145449
H -4.5912721740 5.1000211407 7.5337387432
H -5.6145507174 4.4770365318 6.5470675089
O -2.5957799558 -6.9885490559 3.2055887710
H -3.3085755247 -6.9964195309 2.5411587844
H -2.8912197048 -6.2255797361 3.7401135616
O 2.6107421334 -6.7662983740 6.8317851171
H 2.6851847532 -7.2656218096 7.6771383616
H 1.6471947048 -6.8537906411 6.6900511264
O 5.5030538611 -3.3813936163 6.6861198175
H 5.0835573783 -3.4677610470 7.5745152116
H 5.8258255849 -2.4626403933 6.7670731478
O 6.1950285307 2.0520513297 -7.0347006393
H 5.9901163200 2.6016440676 -7.8322031377
H 6.4739102421 2.7167153287 -6.3816947106
O 2.0056784255 -4.7978347929 -6.0670950852
H 1.4345310728 -4.9115088377 -5.2902422210
H 1.3350779848 -4.5381109318 -6.7377093854
O -2.4496326786 -1.5430644581 3.5582472189
H -2.6821221819 -1.2756236123 4.4687497669
H -2.3094934530 -0.6792970724 3.1194211723
O 3.2334463060 -1.0616335673 -2.2536959963
H 2.9738228236 -0.2861762688 -2.7990929673
H 3.7787275004 -1.5810981383 -2.8787197768
O 4.3070635885 -1.8963298087 0.2163012665
H 3.8532795169 -1.4253797449 -0.5134413344
H 4.6199294418 -2.6980978643 -0.2475233036
O -4.7509144863 -1.7370999801 5.2435911389
H -3.9723175894 -1.4538059245 5.7660127945
H -4.9783486710 -2.6016860095 5.6366215688
O -0.1763262146 -4.0055934879 -7.5262882645
H -0.8132938318 -4.3941270161 -6.8936755529
H -0.6383978173 -4.2158643280 -8.3602109386
O -7.6048039220 -4.0782184751 -1.2888303486
H -7.2195814836 -4.2021353256 -0.3991507920
H -7.2304275649 -4.8579114502 -1.7442854035
O -6.9399755560 -3.8842961676 -4.9569077180
H -6.0708112538 -3.4531238376 -4.9844288739
H -7.1967961647 -3.8601217493 -5.8957904607
O 3.9293148110 -0.2444291710 4.8132136428
H 3.8659533202 -0.9415655968 4.1174656967
H 3.2404404311 -0.5799761812 5.4226490638
O -5.0952508138 -2.1942669147 -1.5849942361
H -5.6281477668 -1.7925143773 -2.2908097833
H -4.9572023514 -3.1143671819 -1.9022407692
O -1.3114526706 -2.3694192525 -4.4992928425
H -0.4520929525 -1.9587544702 -4.4020331740
H -1.8065289262 -1.7393708091 -5.0669158646
O 4.8621318553 -4.6448860071 3.0277608928
H 4.2498033985 -4.6551939749 3.7880549801
H 4.5474501601 -5.4476416232 2.5489823981
O -2.6860409380 -0.9274854527 -6.5001575827
H -3.3665356323 -1.3252458197 -7.0670850277
H -1.8729970812 -0.9779801691 -7.0314820847
O -4.3292842794 -4.7532603464 -2.0665904711
H -4.4924029736 -5.7010582230 -1.8524873674
H -3.7034279707 -4.7884148153 -2.7977495540
O -0.3783045702 -2.9643287692 4.5315565395
H -1.0748118608 -2.3896440266 4.1366613730
H 0.4244466526 -2.6245363960 4.1095316793
O 0.5374814602 3.2265761944 -3.7377570922
H 0.0321471203 2.6953769045 -4.4012379155
H -0.0357244878 3.1182075082 -2.9696612728
O 7.1582406334 2.5788468277 4.4185412513
H 7.7915849783 2.1160546895 3.8136329228
H 6.3235557506 2.3785954999 3.9342971050
O 4.0472006688 -3.2575402214 -7.0117088744
H 3.4442687311 -3.9855579042 -6.7315743349
H 4.2861025996 -2.8922553831 -6.1478900654
O 1.8250824959 3.2885262892 6.4592098205
H 0.8820395101 3.1268287531 6.4198605166
H 1.8414314287 4.2490542229 6.2498059908
O 4.7859251270 -2.1148431318 -4.2392701682
H 5.7072113921 -2.2979328152 -3.9302742114
H 4.9422774937 -1.2599817670 -4.6925995220
O -3.8014608587 2.0090568795 1.7775029960
H -2.9097083377 1.6345585398 1.9239987414
H -4.2765033394 1.6094978611 2.5400524249
O 2.3292505539 4.9302887649 -4.8041793225
H 2.0458864178 5.8756520712 -4.7139449860
H 1.5778245331 4.4171645480 -4.4313176235
O -6.5354872067 1.0990788940 7.2004367426
H -6.5198795061 1.1115735260 8.1876666946
H -7.3148388855 0.5459376225 7.0426977324
O 4.5866111994 6.5189393922 6.5647182497
H 4.5745798464 5.8199912347 7.2365248514
H 5.2892314934 7.0998885020 6.9134084672
O 4.9381757196 1.6503256987 3.0720768255
H 4.7093451742 0.9535416219 3.7262914831
H 5.2747553379 1.1000754587 2.3231306337
O -1.6983288361 5.7027418591 -0.8072625648
H -1.2397748260 6.5606823062 -0.9511888604
H -2.5986496588 5.9596434406 -1.0119314999
O -6.2336162773 0.6446702016 -6.1479563450
H -5.4954607308 1.1158557028 -5.7109887542
H -6.7883870300 0.5361512875 -5.3559968434
O 0.8511689258 7.3252667422 3.5735752469
H 0.9397230547 8.0336275107 4.2287703946
H 0.9553814647 6.5645913267 4.1629498827
O 3.6423828468 3.6243791160 4.5168333593
H 2.9309505838 3.1591676264 4.9902666864
H 4.0266897076 2.8858561120 3.9993323513
O 6.1990042726 5.4715093686 -6.0842995410
H 6.4302627254 4.8064839624 -5.4021279328
H 5.3021134348 5.1774525309 -6.3392310617
O -5.6736705298 -4.3400930457 6.1000454782
H -6.3647132502 -4.9241941303 5.7331954357
H -5.8157623274 -4.4632789648 7.0460085338
O 6.6714766464 3.2798911064 -4.5871415914
H 6.4998898351 2.4737348884 -4.0517503081
H 7.5431553353 3.5359468821 -4.2208782668
O -4.9657875262 7.6862347460 5.7092937060
H -5.2170235970 6.7826596336 5.9660324015
H -5.8107560825 8.1680578292 5.7849683515
O 0.3364203862 6.0190387476 -7.1882264527
H -0.3155880597 5.6597273728 -7.8338245739
H -0.1337272931 5.9198607246 -6.3404343181
O -1.2156575241 5.3748563945 -4.8130410728
H -0.6869723138 4.7221384535 -4.3300465268
H -1.0004149734 6.1846384729 -4.3321448307
O -4.7501557983 2.5489285977 -4.6538975602
H -5.5418824659 2.9582008012 -4.2433591755
H -4.4541761136 3.2887824308 -5.2022840850
O 3.2713712907 -4.3846905123 5.5717181517
H 4.1381399971 -4.1669156740 5.9825968040
H 3.0612383296 -5.2128820492 6.0584135743
O 4.0181523972 -5.0625153269 -3.2233764835
H 4.0399149023 -4.2670990222 -3.7852654531
H 4.4447369533 -4.7051975722 -2.4091818451
O 1.5603381127 7.4635566600 -4.5144235531
H 1.6897317337 8.1162544683 -3.8054904303
H 1.9765538414 7.9266923974 -5.2674012691
O 1.2432720267 -3.0023175751 -2.4756522764
H 1.7954597927 -2.1985830580 -2.4438053740
H 0.8848710428 -3.0524873393 -1.5781016053
O 2.0676167706 -2.0000415461 5.9945884820
H 1.2784383342 -2.3692644748 6.4106222796
H 2.5453045162 -2.8306528668 5.7779481155
O 1.9413921280 -6.6134202944 -2.5164961147
H 1.9296689425 -6.3353552471 -1.5643773190
H 2.6510192074 -6.0088903771 -2.8444838633
O -1.8111604021 -4.8939593928 -5.5751662669
H -1.9423540291 -4.0642764075 -5.0725778922
H -1.0455823896 -5.2562055530 -5.0723730225
O 6.1060594567 -0.1491423949 1.3845505677
H 5.4298548622 -0.7291847037 0.9738294734
H 6.7150216993 -0.8051479152 1.7847492703
O -3.8383546028 5.1185943919 -6.3725071360
H -3.1371218503 5.5015605990 -5.8107112069
H -3.3933648300 4.3196535192 -6.7120325992
O -5.7521903795 -1.8274498968 -7.1039161365
H -5.9046066121 -0.9280352920 -6.7312729200
H -5.8604865452 -1.6730181697 -8.0451240756
O -4.8137798844 -6.9361856620 1.4117876134
H -4.9175633145 -7.0775380960 0.4516849316
H -5.1436080483 -7.8147361598 1.7245209357
O -6.4008838424 6.6433896014 -2.8218225916
H -7.3579321621 6.7703029995 -2.8019045158
H -6.1556625354 7.0999484598 -3.6585561316
O 2.6890056159 7.5620489129 -7.1128988176
H 1.8076588229 7.1365356759 -7.1483617853
H 3.2694401635 6.7822068905 -7.0789207001
O 6.6857937604 7.4168721509 -7.8269011174
H 6.5405447590 6.7215271399 -7.1387554279
H 7.5570937445 7.7233847032 -7.5482541789
O -2.6537261320 2.8758004677 -7.5420957704
H -2.0870156801 2.4934805070 -6.8372699836
H -2.0616540948 3.5082025855 -7.9875848151
O 3.7375503253 4.7329503988 -7.1307886650
H 3.1642090462 4.6122014064 -6.3344699141
H 3.5106005725 3.9534523445 -7.6668054768
O 5.4567331916 2.9036058734 6.5933767862
H 6.2026052006 2.8411011539 5.9680373967
H 4.8261187933 3.4518252647 6.1080784634
O -1.1383331401 1.7401375921 -5.3468848207
H -1.8255131144 1.2241165951 -4.8505272613
H -0.7870102033 1.0703007219 -5.9797017310
O -2.5546108862 -0.6130732818 6.2862282123
H -2.9590025877 0.2257646583 6.5880432459
H -1.6111817271 -0.3635278076 6.3320326406
O 0.0478647200 0.0284321601 -7.2103446642
H 0.0671852575 0.2285113181 -8.1706521196
H 0.9974315769 -0.1980693367 -7.0571283029
O -1.4648569514 -4.9516864097 6.0906877804
H -1.0341046982 -4.2816920143 5.5016788985
H -2.2964719425 -5.0348692713 5.5874222137
O -0.0937144994 0.6509250622 6.1939548318
H 0.7394115984 0.3408574113 5.8152275843
H -0.3062306108 1.4425112100 5.6488945651
O -0.1197308766 -7.2775293107 6.5950269965
H -0.5673351627 -6.4058620244 6.6357742546
H -0.8813600477 -7.8490895081 6.3879264729
O -6.5797376974 4.8550086934 -6.4111301104
H -5.6274437956 5.0631095930 -6.5076160266
H -6.9269835018 4.9694193375 -7.3069100157
O 7.5593828731 -0.5024376636 -1.0373505175
H 7.4836988429 -1.4004613917 -0.6927508867
H 7.1675204166 0.0249205652 -0.3174959040
O -7.2281426168 1.2609229114 2.6366387488
H -7.0062308692 1.4197080642 1.7073322857
H -6.3538882663 1.2395855774 3.0818736557
O 7.1663967600 -2.8300505476 -3.4301037274
H 7.6744371339 -2.9454050055 -2.6063587998
H 7.8055600837 -3.2681604111 -4.0307897794
O -6.5183990068 -4.7269485401 1.2676403210
H -5.9067353595 -5.4783980666 1.4256970339
H -6.0214217710 -4.0203831765 1.6938387197
O -7.9868683652 -1.9437643140 2.4377374462
H -7.2482757446 -1.9577583608 1.7845124411
H -7.6977006865 -1.2038652322 3.0014871395
O -7.1141361591 -5.9744446196 -3.1375157711
H -8.0117926181 -6.3675925208 -3.2687470871
H -7.1536369148 -5.1795260135 -3.7128704316
O -7.3910832921 -6.8430547389 5.8394443102
H -8.2087225065 -7.3083972288 6.0800531212
H -7.7173197953 -6.2888327573 5.0988067073
O -2.2889347680 7.3712904076 5.5120518750
H -3.2662578827 7.3347103814 5.6094086027
H -2.2640814662 7.8526916619 4.6579239081
O 1.7135258045 -6.1226013986 0.0367175372
H 0.9998253113 -6.2998725406 0.6779243527
H 2.4653331697 -5.9975616233 0.6298344428
O 7.4443584625 -7.3546064891 1.7869584610
H 8.3698075156 -7.1096731490 1.6606953153
H 6.9639743557 -6.6761892985 1.2746683479
O -5.3218062452 -7.1701466746 -1.4453990096
H -5.9935939178 -6.7416141204 -2.0151246327
H -5.5263242078 -8.1032839101 -1.6347686337
O -6.0092501612 -7.6485544775 -4.8967535329
H -5.5073417944 -7.0951557494 -5.5186929714
H -6.3585804188 -6.9653622808 -4.3026739722
O -0.7507850015 -7.7663021565 -1.0756590294
H -0.0865316474 -7.3488665060 -1.6313207436
H -0.4769656922 -7.4398567361 -0.1946376918
O 4.2190137408 -7.1282500421 1.7591001726
H 4.6368210939 -7.3619182602 0.9086678269
H 4.2384172739 -7.9804213042 2.2292926943
O 6.3003591080 -6.8609622530 -3.3406287779
H 5.4631428443 -6.3521163797 -3.3309109354
H 6.1018886203 -7.5449666081 -3.9929097973
O -4.2045825575 -5.8948278916 -6.2836650380
H -3.9681470845 -6.5794371560 -6.9194237963
H -3.3090569130 -5.6109268142 -5.9969838366
O 0.3080290694 -5.1181623697 -3.9961094517
H 0.7972419988 -5.7267173820 -3.4054093509
H 0.5454655827 -4.2567618817 -3.5887143393
